# NOx splits for EmChemXX
# From /global/work/mifapw/noxsplit.special.BASE_MAR2004 
# Key-word, MASS_ASSUMED= 0 by default, 
# change when emissions have artificial mass, e.g. 46 for NOx as NO2
# NO/Biomass Burning from Delas et al., 1995 (JAC)
# IC_BB=101. Note that assumed mass
# not used for BB, since GFED decides that.
# For INSHIP, 350, we use GEOS-CHEM assumption that 1 mol NOx is released as 1 mol HNO3 + 10 mols O3
# 48/63.0*10*100 = 761.9
: MASS_ASSUMED 46
99 99     NO    NO2     SHIPNOX       #HEADERS
#DATA
101 11 90.0  10.0  0.0  
1 1 95.00000 5.000000  0.0  
1 2 95.00000 5.000000  0.0  
1 3 95.00000 5.000000  0.0  
1 4 95.00000 5.000000  0.0  
1 5 95.00000 5.000000  0.0  
1 6 95.00000 5.000000  0.0  
1 7 93.00000 7.000000  0.0  
1 8 93.00000 7.000000  0.0  
1 9 95.00000 5.000000  0.0  
1 10 95.00000 5.000000  0.0  
2 1 95.00000 5.000000  0.0  
2 2 95.00000 5.000000  0.0  
2 3 95.00000 5.000000  0.0  
2 4 95.00000 5.000000  0.0  
2 5 95.00000 5.000000  0.0  
2 6 95.00000 5.000000  0.0  
2 7 89.50000 10.50000  0.0  
2 8 93.00000 7.000000  0.0  
2 9 95.00000 5.000000  0.0  
2 10 95.00000 5.000000  0.0  
3 1 95.00000 5.000000  0.0  
3 2 95.00000 5.000000  0.0  
3 3 95.00000 5.000000  0.0  
3 4 95.00000 5.000000  0.0  
3 5 95.00000 5.000000  0.0  
3 6 95.00000 5.000000  0.0  
3 7 90.40000 9.600000  0.0  
3 8 93.20000 6.800000  0.0  
3 9 95.00000 5.000000  0.0  
3 10 95.00000 5.000000  0.0  
4 1 95.00000 5.000000  0.0  
4 2 95.00000 5.000000  0.0  
4 3 95.00000 5.000000  0.0  
4 4 95.00000 5.000000  0.0  
4 5 95.00000 5.000000  0.0  
4 6 95.00000 5.000000  0.0  
4 7 93.00000 7.000000  0.0  
4 8 93.00000 7.000000  0.0  
4 9 95.00000 5.000000  0.0  
4 10 95.00000 5.000000  0.0  
6 1 95.00000 5.000000  0.0  
6 2 95.00000 5.000000  0.0  
6 3 95.00000 5.000000  0.0  
6 4 95.00000 5.000000  0.0  
6 5 95.00000 5.000000  0.0  
6 6 95.00000 5.000000  0.0  
6 7 92.10000 7.900000  0.0  
6 8 93.10000 6.900000  0.0  
6 9 95.00000 5.000000  0.0  
6 10 95.00000 5.000000  0.0  
7 1 95.00000 5.000000  0.0  
7 2 95.00000 5.000000  0.0  
7 3 95.00000 5.000000  0.0  
7 4 95.00000 5.000000  0.0  
7 5 95.00000 5.000000  0.0  
7 6 95.00000 5.000000  0.0  
7 7 92.30000 7.700000  0.0  
7 8 93.00000 7.000000  0.0  
7 9 95.00000 5.000000  0.0  
7 10 95.00000 5.000000  0.0  
8 1 95.00000 5.000000  0.0  
8 2 95.00000 5.000000  0.0  
8 3 95.00000 5.000000  0.0  
8 4 95.00000 5.000000  0.0  
8 5 95.00000 5.000000  0.0  
8 6 95.00000 5.000000  0.0  
8 7 91.40000 8.600000  0.0  
8 8 93.10000 6.900000  0.0  
8 9 95.00000 5.000000  0.0  
8 10 95.00000 5.000000  0.0  
9 1 95.00000 5.000000  0.0  
9 2 95.00000 5.000000  0.0  
9 3 95.00000 5.000000  0.0  
9 4 95.00000 5.000000  0.0  
9 5 95.00000 5.000000  0.0  
9 6 95.00000 5.000000  0.0  
9 7 91.60000 8.400000  0.0  
9 8 93.10000 6.900000  0.0  
9 9 95.00000 5.000000  0.0  
9 10 95.00000 5.000000  0.0  
10 1 95.00000 5.000000  0.0  
10 2 95.00000 5.000000  0.0  
10 3 95.00000 5.000000  0.0  
10 4 95.00000 5.000000  0.0  
10 5 95.00000 5.000000  0.0  
10 6 95.00000 5.000000  0.0  
10 7 91.60000 8.400000  0.0  
10 8 93.10000 6.900000  0.0  
10 9 95.00000 5.000000  0.0  
10 10 95.00000 5.000000  0.0  
11 1 95.00000 5.000000  0.0  
11 2 95.00000 5.000000  0.0  
11 3 95.00000 5.000000  0.0  
11 4 95.00000 5.000000  0.0  
11 5 95.00000 5.000000  0.0  
11 6 95.00000 5.000000  0.0  
11 7 92.70000 7.300000  0.0  
11 8 93.00000 7.000000  0.0  
11 9 95.00000 5.000000  0.0  
11 10 95.00000 5.000000  0.0  
12 1 95.00000 5.000000  0.0  
12 2 95.00000 5.000000  0.0  
12 3 95.00000 5.000000  0.0  
12 4 95.00000 5.000000  0.0  
12 5 95.00000 5.000000  0.0  
12 6 95.00000 5.000000  0.0  
12 7 92.80000 7.200000  0.0  
12 8 93.00000 7.000000  0.0  
12 9 95.00000 5.000000  0.0  
12 10 95.00000 5.000000  0.0  
14 1 95.00000 5.000000  0.0  
14 2 95.00000 5.000000  0.0  
14 3 95.00000 5.000000  0.0  
14 4 95.00000 5.000000  0.0  
14 5 95.00000 5.000000  0.0  
14 6 95.00000 5.000000  0.0  
14 7 91.90000 8.100000  0.0  
14 8 93.20000 6.800000  0.0  
14 9 95.00000 5.000000  0.0  
14 10 95.00000 5.000000  0.0  
15 1 95.00000 5.000000  0.0  
15 2 95.00000 5.000000  0.0  
15 3 95.00000 5.000000  0.0  
15 4 95.00000 5.000000  0.0  
15 5 95.00000 5.000000  0.0  
15 6 95.00000 5.000000  0.0  
15 7 91.60000 8.400000  0.0  
15 8 93.00000 7.000000  0.0  
15 9 95.00000 5.000000  0.0  
15 10 95.00000 5.000000  0.0  
16 1 95.00000 5.000000  0.0  
16 2 95.00000 5.000000  0.0  
16 3 95.00000 5.000000  0.0  
16 4 95.00000 5.000000  0.0  
16 5 95.00000 5.000000  0.0  
16 6 95.00000 5.000000  0.0  
16 7 91.70000 8.300000  0.0  
16 8 93.20000 6.800000  0.0  
16 9 95.00000 5.000000  0.0  
16 10 95.00000 5.000000  0.0  
17 1 95.00000 5.000000  0.0  
17 2 95.00000 5.000000  0.0  
17 3 95.00000 5.000000  0.0  
17 4 95.00000 5.000000  0.0  
17 5 95.00000 5.000000  0.0  
17 6 95.00000 5.000000  0.0  
17 7 91.20000 8.800000  0.0  
17 8 93.00000 7.000000  0.0  
17 9 95.00000 5.000000  0.0  
17 10 95.00000 5.000000  0.0  
18 1 95.00000 5.000000  0.0  
18 2 95.00000 5.000000  0.0  
18 3 95.00000 5.000000  0.0  
18 4 95.00000 5.000000  0.0  
18 5 95.00000 5.000000  0.0  
18 6 95.00000 5.000000  0.0  
18 7 92.50000 7.500000  0.0  
18 8 93.00000 7.000000  0.0  
18 9 95.00000 5.000000  0.0  
18 10 95.00000 5.000000  0.0  
19 1 95.00000 5.000000  0.0  
19 2 95.00000 5.000000  0.0  
19 3 95.00000 5.000000  0.0  
19 4 95.00000 5.000000  0.0  
19 5 95.00000 5.000000  0.0  
19 6 95.00000 5.000000  0.0  
19 7 92.60000 7.400000  0.0  
19 8 93.00000 7.000000  0.0  
19 9 95.00000 5.000000  0.0  
19 10 95.00000 5.000000  0.0  
20 1 95.00000 5.000000  0.0  
20 2 95.00000 5.000000  0.0  
20 3 95.00000 5.000000  0.0  
20 4 95.00000 5.000000  0.0  
20 5 95.00000 5.000000  0.0  
20 6 95.00000 5.000000  0.0  
20 7 90.60000 9.400000  0.0  
20 8 93.10000 6.900000  0.0  
20 9 95.00000 5.000000  0.0  
20 10 95.00000 5.000000  0.0  
21 1 95.00000 5.000000  0.0  
21 2 95.00000 5.000000  0.0  
21 3 95.00000 5.000000  0.0  
21 4 95.00000 5.000000  0.0  
21 5 95.00000 5.000000  0.0  
21 6 95.00000 5.000000  0.0  
21 7 93.00000 7.000000  0.0  
21 8 93.00000 7.000000  0.0  
21 9 95.00000 5.000000  0.0  
21 10 95.00000 5.000000  0.0  
22 1 95.00000 5.000000  0.0  
22 2 95.00000 5.000000  0.0  
22 3 95.00000 5.000000  0.0  
22 4 95.00000 5.000000  0.0  
22 5 95.00000 5.000000  0.0  
22 6 95.00000 5.000000  0.0  
22 7 90.60000 9.400000  0.0  
22 8 93.00000 7.000000  0.0  
22 9 95.00000 5.000000  0.0  
22 10 95.00000 5.000000  0.0  
23 1 95.00000 5.000000  0.0  
23 2 95.00000 5.000000  0.0  
23 3 95.00000 5.000000  0.0  
23 4 95.00000 5.000000  0.0  
23 5 95.00000 5.000000  0.0  
23 6 95.00000 5.000000  0.0  
23 7 92.80000 7.200000  0.0  
23 8 93.00000 7.000000  0.0  
23 9 95.00000 5.000000  0.0  
23 10 95.00000 5.000000  0.0  
24 1 95.00000 5.000000  0.0  
24 2 95.00000 5.000000  0.0  
24 3 95.00000 5.000000  0.0  
24 4 95.00000 5.000000  0.0  
24 5 95.00000 5.000000  0.0  
24 6 95.00000 5.000000  0.0  
24 7 92.50000 7.500000  0.0  
24 8 93.20000 6.800000  0.0  
24 9 95.00000 5.000000  0.0  
24 10 95.00000 5.000000  0.0  
25 1 95.00000 5.000000  0.0  
25 2 95.00000 5.000000  0.0  
25 3 95.00000 5.000000  0.0  
25 4 95.00000 5.000000  0.0  
25 5 95.00000 5.000000  0.0  
25 6 95.00000 5.000000  0.0  
25 7 93.00000 7.000000  0.0  
25 8 93.00000 7.000000  0.0  
25 9 95.00000 5.000000  0.0  
25 10 95.00000 5.000000  0.0  
27 1 95.00000 5.000000  0.0  
27 2 95.00000 5.000000  0.0  
27 3 95.00000 5.000000  0.0  
27 4 95.00000 5.000000  0.0  
27 5 95.00000 5.000000  0.0  
27 6 95.00000 5.000000  0.0  
27 7 91.80000 8.200000  0.0  
27 8 93.20000 6.800000  0.0  
27 9 95.00000 5.000000  0.0  
27 10 95.00000 5.000000  0.0  
30 1 95.00000 5.000000  0.0  
30 2 95.00000 5.000000  0.0  
30 3 95.00000 5.000000  0.0  
30 4 95.00000 5.000000  0.0  
30 5 95.00000 5.000000  0.0  
30 6 95.00000 5.000000  0.0  
30 7 95.00000 5.000000  0.0  
30 8 93.00000 7.000000  0.0  
30 9 95.00000 5.000000  0.0  
30 10 95.00000 5.000000  0.0  
31 1 95.00000 5.000000  0.0  
31 2 95.00000 5.000000  0.0  
31 3 95.00000 5.000000  0.0  
31 4 95.00000 5.000000  0.0  
31 5 95.00000 5.000000  0.0  
31 6 95.00000 5.000000  0.0  
31 7 95.00000 5.000000  0.0  
31 8 93.00000 7.000000  0.0  
31 9 95.00000 5.000000  0.0  
31 10 95.00000 5.000000  0.0  
32 1 95.00000 5.000000  0.0  
32 2 95.00000 5.000000  0.0  
32 3 95.00000 5.000000  0.0  
32 4 95.00000 5.000000  0.0  
32 5 95.00000 5.000000  0.0  
32 6 95.00000 5.000000  0.0  
32 7 95.00000 5.000000  0.0  
32 8 93.00000 7.000000  0.0  
32 9 95.00000 5.000000  0.0  
32 10 95.00000 5.000000  0.0  
33 1 95.00000 5.000000  0.0  
33 2 95.00000 5.000000  0.0  
33 3 95.00000 5.000000  0.0  
33 4 95.00000 5.000000  0.0  
33 5 95.00000 5.000000  0.0  
33 6 95.00000 5.000000  0.0  
33 7 95.00000 5.000000  0.0  
33 8 93.00000 7.000000  0.0  
33 9 95.00000 5.000000  0.0  
33 10 95.00000 5.000000  0.0  
34 1 95.00000 5.000000  0.0  
34 2 95.00000 5.000000  0.0  
34 3 95.00000 5.000000  0.0  
34 4 95.00000 5.000000  0.0  
34 5 95.00000 5.000000  0.0  
34 6 95.00000 5.000000  0.0  
34 7 95.00000 5.000000  0.0  
34 8 93.00000 7.000000  0.0  
34 9 95.00000 5.000000  0.0  
34 10 95.00000 5.000000  0.0  
36 1 95.00000 5.000000  0.0  
36 2 95.00000 5.000000  0.0  
36 3 95.00000 5.000000  0.0  
36 4 95.00000 5.000000  0.0  
36 5 95.00000 5.000000  0.0  
36 6 95.00000 5.000000  0.0  
36 7 93.00000 7.000000  0.0  
36 8 93.00000 7.000000  0.0  
36 9 95.00000 5.000000  0.0  
36 10 95.00000 5.000000  0.0  
37 1 95.00000 5.000000  0.0  
37 2 95.00000 5.000000  0.0  
37 3 95.00000 5.000000  0.0  
37 4 95.00000 5.000000  0.0  
37 5 95.00000 5.000000  0.0  
37 6 95.00000 5.000000  0.0  
37 7 93.00000 7.000000  0.0  
37 8 93.00000 7.000000  0.0  
37 9 95.00000 5.000000  0.0  
37 10 95.00000 5.000000  0.0  
38 1 95.00000 5.000000  0.0  
38 2 95.00000 5.000000  0.0  
38 3 95.00000 5.000000  0.0  
38 4 95.00000 5.000000  0.0  
38 5 95.00000 5.000000  0.0  
38 6 95.00000 5.000000  0.0  
38 7 93.00000 7.000000  0.0  
38 8 93.00000 7.000000  0.0  
38 9 95.00000 5.000000  0.0  
38 10 95.00000 5.000000  0.0  
39 1 95.00000 5.000000  0.0  
39 2 95.00000 5.000000  0.0  
39 3 95.00000 5.000000  0.0  
39 4 95.00000 5.000000  0.0  
39 5 95.00000 5.000000  0.0  
39 6 95.00000 5.000000  0.0  
39 7 93.00000 7.000000  0.0  
39 8 93.00000 7.000000  0.0  
39 9 95.00000 5.000000  0.0  
39 10 95.00000 5.000000  0.0  
40 1 95.00000 5.000000  0.0  
40 2 95.00000 5.000000  0.0  
40 3 95.00000 5.000000  0.0  
40 4 95.00000 5.000000  0.0  
40 5 95.00000 5.000000  0.0  
40 6 95.00000 5.000000  0.0  
40 7 93.00000 7.000000  0.0  
40 8 93.00000 7.000000  0.0  
40 9 95.00000 5.000000  0.0  
40 10 95.00000 5.000000  0.0  
41 1 95.00000 5.000000  0.0  
41 2 95.00000 5.000000  0.0  
41 3 95.00000 5.000000  0.0  
41 4 95.00000 5.000000  0.0  
41 5 95.00000 5.000000  0.0  
41 6 95.00000 5.000000  0.0  
41 7 93.00000 7.000000  0.0  
41 8 93.00000 7.000000  0.0  
41 9 95.00000 5.000000  0.0  
41 10 95.00000 5.000000  0.0  
42 1 95.00000 5.000000  0.0  
42 2 95.00000 5.000000  0.0  
42 3 95.00000 5.000000  0.0  
42 4 95.00000 5.000000  0.0  
42 5 95.00000 5.000000  0.0  
42 6 95.00000 5.000000  0.0  
42 7 93.00000 7.000000  0.0  
42 8 93.00000 7.000000  0.0  
42 9 95.00000 5.000000  0.0  
42 10 95.00000 5.000000  0.0  
43 1 95.00000 5.000000  0.0  
43 2 95.00000 5.000000  0.0  
43 3 95.00000 5.000000  0.0  
43 4 95.00000 5.000000  0.0  
43 5 95.00000 5.000000  0.0  
43 6 95.00000 5.000000  0.0  
43 7 93.00000 7.000000  0.0  
43 8 93.00000 7.000000  0.0  
43 9 95.00000 5.000000  0.0  
43 10 95.00000 5.000000  0.0  
44 1 95.00000 5.000000  0.0  
44 2 95.00000 5.000000  0.0  
44 3 95.00000 5.000000  0.0  
44 4 95.00000 5.000000  0.0  
44 5 95.00000 5.000000  0.0  
44 6 95.00000 5.000000  0.0  
44 7 93.00000 7.000000  0.0  
44 8 93.00000 7.000000  0.0  
44 9 95.00000 5.000000  0.0  
44 10 95.00000 5.000000  0.0  
45 1 95.00000 5.000000  0.0  
45 2 95.00000 5.000000  0.0  
45 3 95.00000 5.000000  0.0  
45 4 95.00000 5.000000  0.0  
45 5 95.00000 5.000000  0.0  
45 6 95.00000 5.000000  0.0  
45 7 92.90000 7.100000  0.0  
45 8 93.00000 7.000000  0.0  
45 9 95.00000 5.000000  0.0  
45 10 95.00000 5.000000  0.0  
46 1 95.00000 5.000000  0.0  
46 2 95.00000 5.000000  0.0  
46 3 95.00000 5.000000  0.0  
46 4 95.00000 5.000000  0.0  
46 5 95.00000 5.000000  0.0  
46 6 95.00000 5.000000  0.0  
46 7 93.00000 7.000000  0.0  
46 8 93.00000 7.000000  0.0  
46 9 95.00000 5.000000  0.0  
46 10 95.00000 5.000000  0.0  
47 1 95.00000 5.000000  0.0  
47 2 95.00000 5.000000  0.0  
47 3 95.00000 5.000000  0.0  
47 4 95.00000 5.000000  0.0  
47 5 95.00000 5.000000  0.0  
47 6 95.00000 5.000000  0.0  
47 7 92.60000 7.400000  0.0  
47 8 93.00000 7.000000  0.0  
47 9 95.00000 5.000000  0.0  
47 10 95.00000 5.000000  0.0  
48 1 95.00000 5.000000  0.0  
48 2 95.00000 5.000000  0.0  
48 3 95.00000 5.000000  0.0  
48 4 95.00000 5.000000  0.0  
48 5 95.00000 5.000000  0.0  
48 6 95.00000 5.000000  0.0  
48 7 92.30000 7.700000  0.0  
48 8 93.00000 7.000000  0.0  
48 9 95.00000 5.000000  0.0  
48 10 95.00000 5.000000  0.0  
49 1 95.00000 5.000000  0.0  
49 2 95.00000 5.000000  0.0  
49 3 95.00000 5.000000  0.0  
49 4 95.00000 5.000000  0.0  
49 5 95.00000 5.000000  0.0  
49 6 95.00000 5.000000  0.0  
49 7 93.00000 7.000000  0.0  
49 8 93.00000 7.000000  0.0  
49 9 95.00000 5.000000  0.0  
49 10 95.00000 5.000000  0.0  
50 1 95.00000 5.000000  0.0  
50 2 95.00000 5.000000  0.0  
50 3 95.00000 5.000000  0.0  
50 4 95.00000 5.000000  0.0  
50 5 95.00000 5.000000  0.0  
50 6 95.00000 5.000000  0.0  
50 7 93.00000 7.000000  0.0  
50 8 93.00000 7.000000  0.0  
50 9 95.00000 5.000000  0.0  
50 10 95.00000 5.000000  0.0  
51 1 95.00000 5.000000  0.0  
51 2 95.00000 5.000000  0.0  
51 3 95.00000 5.000000  0.0  
51 4 95.00000 5.000000  0.0  
51 5 95.00000 5.000000  0.0  
51 6 95.00000 5.000000  0.0  
51 7 93.00000 7.000000  0.0  
51 8 93.00000 7.000000  0.0  
51 9 95.00000 5.000000  0.0  
51 10 95.00000 5.000000  0.0  
52 1 95.00000 5.000000  0.0  
52 2 95.00000 5.000000  0.0  
52 3 95.00000 5.000000  0.0  
52 4 95.00000 5.000000  0.0  
52 5 95.00000 5.000000  0.0  
52 6 95.00000 5.000000  0.0  
52 7 93.00000 7.000000  0.0  
52 8 93.00000 7.000000  0.0  
52 9 95.00000 5.000000  0.0  
52 10 95.00000 5.000000  0.0  
55 1 95.00000 5.000000  0.0  
55 2 95.00000 5.000000  0.0  
55 3 95.00000 5.000000  0.0  
55 4 95.00000 5.000000  0.0  
55 5 95.00000 5.000000  0.0  
55 6 95.00000 5.000000  0.0  
55 7 92.40000 7.600000  0.0  
55 8 93.00000 7.000000  0.0  
55 9 95.00000 5.000000  0.0  
55 10 95.00000 5.000000  0.0  
57 1 95.00000 5.000000  0.0  
57 2 95.00000 5.000000  0.0  
57 3 95.00000 5.000000  0.0  
57 4 95.00000 5.000000  0.0  
57 5 95.00000 5.000000  0.0  
57 6 95.00000 5.000000  0.0  
57 7 92.70000 7.300000  0.0  
57 8 95.00000 5.000000  0.0  
57 9 95.00000 5.000000  0.0  
57 10 95.00000 5.000000  0.0  
350 8 47.00000 3.000000  50.0
1002 8 47.00000 3.000000  50.0
